<?xml version="1.0" encoding="UTF-8"?>

<configuration xmlns:xsi="http://www.w3.org/2001/XMLSchema-instance" xsi:noNamespaceSchemaLocation="http://sumo.sf.net/xsd/sumoConfiguration.xsd">

    <input>
        <net-file value="eindhoven.net.xml"/>
        <additional-files value="vehicles.xml"/>
        <route-files value="routes6000manual.xml"/>
        <gui-settings-file value="settings.xml"/>
    </input>

</configuration>